# Generated on 14:03:18, 02-02-2016
# Deltares, D-Flow FM Version 1.1.154.42644, Oct 21 2015, 14:14:14

[model]
Program                           = D-Flow FM
Version                           = 1.1.154.42644
MDUFormatVersion                  = 1.05                # File format version (do not edit this)
AutoStart                         = 0                   # Autostart simulation after loading MDU (0: no, 1: autostart, 2: autostartstop)

[geometry]
NetFile                           = 1d2dFM_Elbe_fine3_emb_net.nc  # Unstructured grid file *_net.nc
BathymetryFile                    =                     # Bathymetry points file *.xyb
DryPointsFile                     =                     # Dry points file *.xyz (third column dummy z values), or dry areas polygon file *.pol (third column 1/-1: inside/outside)
WaterLevIniFile                   =                     # Initial water levels sample file *.xyz
LandBoundaryFile                  =                     # Land boundaries file *.ldb, used for visualization
ThinDamFile                       =                     # Polyline file *_thd.pli, containing thin dams
FixedWeirFile                     =                     # Polyline file *_fxw.pliz, containing fixed weirs with rows x, y, crest level, left ground level, right ground level
VertplizFile                      =                     # Vertical layering file *_vlay.pliz with rows x, y, Z, first Z, nr of layers, second Z, layer type
ProflocFile                       = Hydrography_Elbe_1d_minDis_profloc.xyz                    # Channel profile location file *_proflocation.xyz with rows x, y, z, profile number ref
ProfdefFile                       = Hydrography_Elbe_1d_minDis_profFile.txt                    # Channel profile definition file *_profdefinition.def with definition for all profile numbers
ProfdefxyzFile                    =                     # Channel profile definition file _profdefinition.def with definition for all profile numbers
Uniformwidth1D                    = 2.                  # Uniform width for channel profiles not specified by profloc
StructureFile                     =                     # File *.ini containing list of structures (pumps, weirs, gates and general structures)
ManholeFile                       =                     # File *.ini containing manholes
WaterLevIni                       = 0.                  # Initial water level at missing s0 values
Bedlevuni                         = -5.                 # Uniform bed level used at missing z values if BedlevType > 2
Bedslope                          = 0.                  # Bed slope inclination if BedlevType > 2
BedlevType                        = 3                   # Bathymetry specification
                                                        # 1: at cell centers (from BathymetryFile)
                                                        # 2: at faces (from BathymetryFile)
                                                        # 3: at nodes, face levels mean of node values
                                                        # 4: at nodes, face levels min. of node values
                                                        # 5: at nodes, face levels max. of node values
                                                        # 6: at nodes, face levels max. of cell-center values
Blmeanbelow                       = -999.               # If not -999d0, below this level the cell center bed level is the mean of surrouding net nodes
Blminabove                        = -999.               # If not -999d0, above this level the cell center bed level is the min. of surrouding net nodes
PartitionFile                     =                     # Domain partition polygon file *_part.pol for parallel run
AngLat                            = 0.                  # Angle of latitude S-N (deg), 0: no Coriolis
AngLon                            = 0.                  # Angle of longitude E-W (deg), 0: Greenwich
